Version 4.1
SHEET 1 928 680
WIRE -48 -80 -240 -80
WIRE 208 -80 -48 -80
WIRE -240 -48 -240 -80
WIRE -48 -48 -48 -80
WIRE 208 -48 208 -80
WIRE -240 64 -240 32
WIRE 208 64 208 32
WIRE 336 64 208 64
WIRE 464 64 336 64
WIRE 592 64 464 64
WIRE 624 64 592 64
WIRE 720 64 688 64
WIRE 208 96 208 64
WIRE 336 112 336 64
WIRE 464 112 464 64
WIRE 592 112 592 64
WIRE -48 144 -48 32
WIRE 80 144 -48 144
WIRE 144 144 80 144
WIRE 208 224 208 192
WIRE 336 224 336 176
WIRE 336 224 208 224
WIRE 464 224 464 176
WIRE 464 224 336 224
WIRE -48 256 -48 144
WIRE 80 256 80 144
WIRE 208 256 208 224
WIRE 336 256 336 224
WIRE 464 256 464 224
WIRE 592 256 592 192
WIRE -48 368 -48 336
WIRE 80 368 80 320
WIRE 80 368 -48 368
WIRE 208 368 208 336
WIRE 208 368 80 368
WIRE 336 368 336 320
WIRE 336 368 208 368
WIRE 464 368 464 320
WIRE 464 368 336 368
WIRE 592 368 592 320
WIRE 592 368 464 368
WIRE -48 400 -48 368
FLAG -240 64 0
FLAG -48 400 0
FLAG 720 64 out
IOPIN 720 64 Out
SYMBOL npn 144 96 R0
SYMATTR InstName Q1
SYMATTR Value 2N2222
SYMBOL res -64 -64 R0
SYMATTR InstName R1
SYMATTR Value 22k
SYMBOL res -64 240 R0
SYMATTR InstName R2
SYMATTR Value 4.7k
SYMBOL res 192 240 R0
SYMATTR InstName R3
SYMATTR Value 330
SYMBOL cap 320 256 R0
SYMATTR InstName C1
SYMATTR Value 1n
SYMBOL cap 448 112 R0
SYMATTR InstName C2
SYMATTR Value 100n
SYMBOL cap 448 256 R0
SYMATTR InstName C3
SYMATTR Value 100n
SYMBOL cap 576 256 R0
SYMATTR InstName C4
SYMATTR Value 100n
SYMBOL cap 688 48 R90
WINDOW 0 0 32 VBottom 2
WINDOW 3 32 32 VTop 2
SYMATTR InstName C6
SYMATTR Value 100n
SYMBOL ind 192 -64 R0
SYMATTR InstName L1
SYMATTR Value 10”
SYMATTR SpiceLine Rser=1m
SYMBOL ind 576 96 R0
SYMATTR InstName L2
SYMATTR Value 470”
SYMATTR SpiceLine Rser=1m
SYMBOL voltage -240 -64 R0
WINDOW 123 0 0 Left 0
WINDOW 39 0 0 Left 0
SYMATTR InstName V1
SYMATTR Value 5
SYMBOL zener 352 176 R180
WINDOW 0 24 64 Left 2
WINDOW 3 7 9 Right 2
SYMATTR InstName D1
SYMATTR Value UMZ5_1N
SYMATTR Description Diode
SYMATTR Type diode
SYMBOL cap 64 256 R0
SYMATTR InstName C5
SYMATTR Value 100n
TEXT -272 544 Left 2 !.tran 0 1.2m 1m
